tests/data/power_flow/pandapower/components/asymmetric/asym_load/asym_output.json
{
  "version": "1.0",
  "type": "asym_output",
  "is_batch": false,
  "attributes": {},
  "data": {
    "asym_load": [
      {
        "id": 5,
        "p": [
          10000.0,
          9000.0,
          10499.999999999998
        ],
        "q": [
          2000.0,
          1500.0,
          2500.0
        ]
      },
      {
        "id": 6,
        "p": [
          0.0,
          0.0,
          0.0
        ],
        "q": [
          0.0,
          0.0,
          0.0
        ]
      }
    ],
    "line": [
      {
        "id": 3,
        "p_from": [
          10000.777139296111,
          9000.675246008808,
          10500.822910037958
        ],
        "q_from": [
          -9544.182849979272,
          -10044.374346200108,
          -9044.075533076268
        ],
        "i_from": [
          2.2803924334888266,
          2.224792956143701,
          2.286086779385999
        ],
        "p_to": [
          -9999.999997766143,
          -9000.000010915339,
          -10499.999989393127
        ],
        "q_to": [
          -2000.0000003256098,
          -1499.9999984685448,
          -2500.0000007125664
        ],
        "i_to": [
          1.6823200817421546,
          1.5051505586647485,
          1.780563970810529
        ]
      }
    ],
    "node": [
      {
        "id": 1,
        "u_pu": [
          1.0,
          0.9999999999999999,
          0.9999999999999999
        ],
        "u": [
          6062.177826491071,
          6062.17782649107,
          6062.17782649107
        ],
        "u_angle": [
          -5.47322669266719e-18,
          -2.0943951023931953,
          2.0943951023931953
        ]
      },
      {
        "id": 2,
        "u_pu": [
          0.9999524959138304,
          0.9999620212973325,
          0.9999463725151796
        ],
        "u": [
          6061.889848273227,
          6061.947592841881,
          6061.852727141702
        ],
        "u_angle": [
          -8.008630832509087e-05,
          -2.0944731477929976,
          2.094315696384018
        ]
      }
    ]
  }
}
